&time_control
 run_days                            = 0,
 run_hours                           = 6,
 run_minutes                         = 0,
 run_seconds                         = 0,
 start_year                          = 2020,
 start_month                         = 01,
 start_day                           = 01,
 start_hour                          = 00,
 end_year                            = 2020,
 end_month                           = 01,
 end_day                             = 01,
 end_hour                            = 06,
 interval_seconds                    = 3600,
 input_from_file                     = .true.,.true.,.true.,.true.,
 history_interval                    = 60,
 frames_per_outfile                  = 1,
 restart                             = .false.,
 restart_interval                    = 3600,
 io_form_history                     = 11,
 io_form_restart                     = 11,
 io_form_input                       = 11,
 io_form_boundary                    = 11,
 history_outname = '/Users/tybuckingham/Developer/compile_wrf_arm/tests/output/wrfout_d<domain>_<date>.nc'
 /

&adaptive_timestep
 use_adaptive_time_step              = .true.,
 step_to_output_time                 = .true.,
 target_cfl                          = 1.2,
 max_step_increase_pct               = 26,
 starting_time_step                  = -1,
 max_time_step                       = -1,
 min_time_Step                       = -1,
 adaptation_domain                   = 1,


&domains
 time_step                           = 60,
 time_step_fract_num                 = 0,
 time_step_fract_den                 = 1,
 max_dom                             = 1,
 e_we                                = 100,
 e_sn                                = 100,
 e_vert                              = 33,
 dzstretch_s                         = 1.1,
 dzstretch_u                         = 1.2 
 p_top_requested                     = 5000,
 num_metgrid_levels                  = 38,
 num_metgrid_soil_levels             = 4,
 dx                                  = 10000,
 dy                                  = 10000,
 grid_id                             = 1,
 parent_id                           = 1,
 i_parent_start                      = 1,
 j_parent_start                      = 1,
 parent_grid_ratio                   = 1,
 parent_time_step_ratio              = 1,
 feedback                            = 1,
 smooth_option                       = 1
 /

&physics
 mp_physics                          = 8,
 ra_lw_physics                       = 1,
 ra_sw_physics                       = 1,
 radt                                = 10,
 sf_sfclay_physics                   = 2,
 sf_surface_physics                  = 2,
 sf_urban_physics                    = 2,
 bl_pbl_physics                      = 2,
 cu_physics                          = 6,
 cudt                                = 5,
 bldt                                = 0,
 sf_lake_physics                     = 0,
 lakedepth_default                   = 50,
 lake_min_elev                       = 5,
 use_lakedepth                       = 1,
 isfflx                              = 1,
 ifsnow                              = 1,
 icloud                              = 1,
 surface_input_source                = 1,
 num_soil_layers                     = 3,
 num_land_cat                        = 21, 
 do_radar_ref                        = 1
 /

&dynamics
 w_damping                           = 0,
 damp_opt                            = 0,  
 diff_opt                            = 1,
 km_opt                              = 4,
 diff_6th_opt                        = 0,
 diff_6th_factor                     = 0.12,
 base_temp                           = 290,
 zdamp                               = 5000,
 dampcoef                            = 0.2,
 khdif                               = 0,
 kvdif                               = 0,
 non_hydrostatic                     = .true.,
 moist_adv_opt                       = 1,
 scalar_adv_opt                      = 1,
 /

&bdy_control
 spec_bdy_width                      = 5,
 spec_zone                           = 1,
 specified                           = .true.,
 nested                              = .false.,
 /

&namelist_quilt
 nio_tasks_per_group                 = 0,
 nio_groups                          = 1,
 /
