&share
 wrf_core          = 'ARW',
 max_dom           =   1,
 start_date        =   '2020-01-01_00:00:00',
 end_date          =   '2020-01-01_06:00:00',
 interval_seconds  = 3600
 /

&geogrid
 parent_id         =   1,
 parent_grid_ratio =   1,
 i_parent_start    =   1,
 j_parent_start    =   1,
 e_we              =   100,
 e_sn              =   100,
 geog_data_res     =   'default',
 dx                =   10000,
 dy                =   10000,
 map_proj          =   'mercator',
 ref_lon           =   -4.4,
 ref_lat           =   53.7,
 truelat1          =   53.7,
 truelat2          =   60.0,
 stand_lon         =   -90.0,
 pole_lat          =   90.0,
 pole_lon          =   0.0,
 geog_data_path = ''
 /

&ungrib
 out_format        = 'WPS',
 prefix            = 'FILE',
 /

&metgrid
 fg_name           = 'FILE'
 /
